1024
(8,0) BN Nanotube (1,1,32) replication
N	3.11311	0	-67.0851
B	2.6018	0	-68.5101
N	3.59681	1.20842	-64.9442
B	3.15543	1.20842	-66.3692
N	2.18823	2.23287	-67.0851
B	1.67692	2.23287	-68.5101
N	1.88785	2.91738	-64.9442
B	1.44647	2.91738	-66.3692
N	-0.0446409	3.15775	-67.0851
B	-0.555948	3.15775	-68.5101
N	-0.528986	2.91738	-64.9442
B	-0.970368	2.91738	-66.3692
N	-2.27751	2.23287	-67.0851
B	-2.78882	2.23287	-68.5101
N	-2.23795	1.20842	-64.9442
B	-2.67933	1.20842	-66.3692
N	-3.20239	0	-67.0851
B	-3.7137	0	-68.5101
N	-2.23795	-1.20842	-64.9442
B	-2.67933	-1.20842	-66.3692
N	-2.27751	-2.23287	-67.0851
B	-2.78882	-2.23287	-68.5101
N	-0.528986	-2.91738	-64.9442
B	-0.970368	-2.91738	-66.3692
N	-0.0446409	-3.15775	-67.0851
B	-0.555948	-3.15775	-68.5101
N	1.88785	-2.91738	-64.9442
B	1.44647	-2.91738	-66.3692
N	2.18823	-2.23287	-67.0851
B	1.67692	-2.23287	-68.5101
N	3.59681	-1.20842	-64.9442
B	3.15543	-1.20842	-66.3692
N	3.85426	0	-62.8032
B	3.94209	0	-64.2282
N	2.90619	1.20842	-60.6623
B	3.43184	1.20842	-62.0873
N	2.92937	2.23287	-62.8032
B	3.01721	2.23287	-64.2282
N	1.19723	2.91738	-60.6623
B	1.72288	2.91738	-62.0873
N	0.696504	3.15775	-62.8032
B	0.78434	3.15775	-64.2282
N	-1.21961	2.91738	-60.6623
B	-0.693956	2.91738	-62.0873
N	-1.53636	2.23287	-62.8032
B	-1.44853	2.23287	-64.2282
N	-2.92857	1.20842	-60.6623
B	-2.40292	1.20842	-62.0873
N	-2.46125	0	-62.8032
B	-2.37341	0	-64.2282
N	-2.92857	-1.20842	-60.6623
B	-2.40292	-1.20842	-62.0873
N	-1.53636	-2.23287	-62.8032
B	-1.44853	-2.23287	-64.2282
N	-1.21961	-2.91738	-60.6623
B	-0.693956	-2.91738	-62.0873
N	0.696504	-3.15775	-62.8032
B	0.78434	-3.15775	-64.2282
N	1.19723	-2.91738	-60.6623
B	1.72288	-2.91738	-62.0873
N	2.92937	-2.23287	-62.8032
B	3.01721	-2.23287	-64.2282
N	2.90619	-1.20842	-60.6623
B	3.43184	-1.20842	-62.0873
N	2.45051	0	-58.5213
B	2.867	0	-59.9463
N	2.25003	1.20842	-56.3804
B	2.12396	1.20842	-57.8054
N	1.52563	2.23287	-58.5213
B	1.94211	2.23287	-59.9463
N	0.541067	2.91738	-56.3804
B	0.415001	2.91738	-57.8054
N	-0.707241	3.15775	-58.5213
B	-0.290753	3.15775	-59.9463
N	-1.87577	2.91738	-56.3804
B	-2.00184	2.91738	-57.8054
N	-2.94011	2.23287	-58.5213
B	-2.52362	2.23287	-59.9463
N	-3.58473	1.20842	-56.3804
B	-3.7108	1.20842	-57.8054
N	-3.86499	0	-58.5213
B	-3.4485	0	-59.9463
N	-3.58473	-1.20842	-56.3804
B	-3.7108	-1.20842	-57.8054
N	-2.94011	-2.23287	-58.5213
B	-2.52362	-2.23287	-59.9463
N	-1.87577	-2.91738	-56.3804
B	-2.00184	-2.91738	-57.8054
N	-0.707241	-3.15775	-58.5213
B	-0.290753	-3.15775	-59.9463
N	0.541067	-2.91738	-56.3804
B	0.415001	-2.91738	-57.8054
N	1.52563	-2.23287	-58.5213
B	1.94211	-2.23287	-59.9463
N	2.25003	-1.20842	-56.3804
B	2.12396	-1.20842	-57.8054
N	3.22472	0	-54.2395
B	2.68728	0	-55.6645
N	3.64898	1.20842	-52.0985
B	3.25942	1.20842	-53.5235
N	2.29983	2.23287	-54.2395
B	1.7624	2.23287	-55.6645
N	1.94002	2.91738	-52.0985
B	1.55046	2.91738	-53.5235
N	0.0669672	3.15775	-54.2395
B	-0.47047	3.15775	-55.6645
N	-0.476817	2.91738	-52.0985
B	-0.866381	2.91738	-53.5235
N	-2.1659	2.23287	-54.2395
B	-2.70334	2.23287	-55.6645
N	-2.18578	1.20842	-52.0985
B	-2.57534	1.20842	-53.5235
N	-3.09078	0	-54.2395
B	-3.62822	0	-55.6645
N	-2.18578	-1.20842	-52.0985
B	-2.57534	-1.20842	-53.5235
N	-2.1659	-2.23287	-54.2395
B	-2.70334	-2.23287	-55.6645
N	-0.476817	-2.91738	-52.0985
B	-0.866381	-2.91738	-53.5235
N	0.0669672	-3.15775	-54.2395
B	-0.47047	-3.15775	-55.6645
N	1.94002	-2.91738	-52.0985
B	1.55046	-2.91738	-53.5235
N	2.29983	-2.23287	-54.2395
B	1.7624	-2.23287	-55.6645
N	3.64898	-1.20842	-52.0985
B	3.25942	-1.20842	-53.5235
N	3.7927	0	-49.9576
B	3.95638	0	-51.3826
N	2.79496	1.20842	-47.8166
B	3.34157	1.20842	-49.2416
N	2.86782	2.23287	-49.9576
B	3.0315	2.23287	-51.3826
N	1.086	2.91738	-47.8166
B	1.6326	2.91738	-49.2416
N	0.634949	3.15775	-49.9576
B	0.798629	3.15775	-51.3826
N	-1.33084	2.91738	-47.8166
B	-0.784233	2.91738	-49.2416
N	-1.59792	2.23287	-49.9576
B	-1.43424	2.23287	-51.3826
N	-3.0398	1.20842	-47.8166
B	-2.4932	1.20842	-49.2416
N	-2.5228	0	-49.9576
B	-2.35912	0	-51.3826
N	-3.0398	-1.20842	-47.8166
B	-2.4932	-1.20842	-49.2416
N	-1.59792	-2.23287	-49.9576
B	-1.43424	-2.23287	-51.3826
N	-1.33084	-2.91738	-47.8166
B	-0.784233	-2.91738	-49.2416
N	0.634949	-3.15775	-49.9576
B	0.798629	-3.15775	-51.3826
N	1.086	-2.91738	-47.8166
B	1.6326	-2.91738	-49.2416
N	2.86782	-2.23287	-49.9576
B	3.0315	-2.23287	-51.3826
N	2.79496	-1.20842	-47.8166
B	3.34157	-1.20842	-49.2416
N	2.40535	0	-45.6757
B	2.7661	0	-47.1007
N	2.31793	1.20842	-43.5348
B	2.11743	1.20842	-44.9598
N	1.48047	2.23287	-45.6757
B	1.84121	2.23287	-47.1007
N	0.608967	2.91738	-43.5348
B	0.40847	2.91738	-44.9598
N	-0.752399	3.15775	-45.6757
B	-0.391656	3.15775	-47.1007
N	-1.80787	2.91738	-43.5348
B	-2.00837	2.91738	-44.9598
N	-2.98527	2.23287	-45.6757
B	-2.62452	2.23287	-47.1007
N	-3.51683	1.20842	-43.5348
B	-3.71733	1.20842	-44.9598
N	-3.91015	0	-45.6757
B	-3.54941	0	-47.1007
N	-3.51683	-1.20842	-43.5348
B	-3.71733	-1.20842	-44.9598
N	-2.98527	-2.23287	-45.6757
B	-2.62452	-2.23287	-47.1007
N	-1.80787	-2.91738	-43.5348
B	-2.00837	-2.91738	-44.9598
N	-0.752399	-3.15775	-45.6757
B	-0.391656	-3.15775	-47.1007
N	0.608967	-2.91738	-43.5348
B	0.40847	-2.91738	-44.9598
N	1.48047	-2.23287	-45.6757
B	1.84121	-2.23287	-47.1007
N	2.31793	-1.20842	-43.5348
B	2.11743	-1.20842	-44.9598
N	3.33502	0	-41.3938
B	2.78192	0	-42.8188
N	3.68691	1.20842	-39.2529
B	3.35675	1.20842	-40.6779
N	2.41014	2.23287	-41.3938
B	1.85703	2.23287	-42.8188
N	1.97795	2.91738	-39.2529
B	1.64778	2.91738	-40.6779
N	0.177272	3.15775	-41.3938
B	-0.375834	3.15775	-42.8188
N	-0.438889	2.91738	-39.2529
B	-0.769054	2.91738	-40.6779
N	-2.0556	2.23287	-41.3938
B	-2.6087	2.23287	-42.8188
N	-2.14785	1.20842	-39.2529
B	-2.47802	1.20842	-40.6779
N	-2.98048	0	-41.3938
B	-3.53359	0	-42.8188
N	-2.14785	-1.20842	-39.2529
B	-2.47802	-1.20842	-40.6779
N	-2.0556	-2.23287	-41.3938
B	-2.6087	-2.23287	-42.8188
N	-0.438889	-2.91738	-39.2529
B	-0.769054	-2.91738	-40.6779
N	0.177272	-3.15775	-41.3938
B	-0.375834	-3.15775	-42.8188
N	1.97795	-2.91738	-39.2529
B	1.64778	-2.91738	-40.6779
N	2.41014	-2.23287	-41.3938
B	1.85703	-2.23287	-42.8188
N	3.68691	-1.20842	-39.2529
B	3.35675	-1.20842	-40.6779
N	3.71878	0	-37.1119
B	3.95512	0	-38.5369
N	2.68612	1.20842	-34.971
B	3.24303	1.20842	-36.396
N	2.7939	2.23287	-37.1119
B	3.03024	2.23287	-38.5369
N	0.977157	2.91738	-34.971
B	1.53407	2.91738	-36.396
N	0.561033	3.15775	-37.1119
B	0.797371	3.15775	-38.5369
N	-1.43968	2.91738	-34.971
B	-0.882768	2.91738	-36.396
N	-1.67183	2.23287	-37.1119
B	-1.4355	2.23287	-38.5369
N	-3.14864	1.20842	-34.971
B	-2.59173	1.20842	-36.396
N	-2.59672	0	-37.1119
B	-2.36038	0	-38.5369
N	-3.14864	-1.20842	-34.971
B	-2.59173	-1.20842	-36.396
N	-1.67183	-2.23287	-37.1119
B	-1.4355	-2.23287	-38.5369
N	-1.43968	-2.91738	-34.971
B	-0.882768	-2.91738	-36.396
N	0.561033	-3.15775	-37.1119
B	0.797371	-3.15775	-38.5369
N	0.977157	-2.91738	-34.971
B	1.53407	-2.91738	-36.396
N	2.7939	-2.23287	-37.1119
B	3.03024	-2.23287	-38.5369
N	2.68612	-1.20842	-34.971
B	3.24303	-1.20842	-36.396
N	2.37484	0	-32.8301
B	2.67282	0	-34.2551
N	2.3975	1.20842	-30.6891
B	2.12647	1.20842	-32.1141
N	1.44996	2.23287	-32.8301
B	1.74793	2.23287	-34.2551
N	0.688538	2.91738	-30.6891
B	0.417511	2.91738	-32.1141
N	-0.782911	3.15775	-32.8301
B	-0.484934	3.15775	-34.2551
N	-1.7283	2.91738	-30.6891
B	-1.99933	2.91738	-32.1141
N	-3.01578	2.23287	-32.8301
B	-2.7178	2.23287	-34.2551
N	-3.43726	1.20842	-30.6891
B	-3.70829	1.20842	-32.1141
N	-3.94066	0	-32.8301
B	-3.64269	0	-34.2551
N	-3.43726	-1.20842	-30.6891
B	-3.70829	-1.20842	-32.1141
N	-3.01578	-2.23287	-32.8301
B	-2.7178	-2.23287	-34.2551
N	-1.7283	-2.91738	-30.6891
B	-1.99933	-2.91738	-32.1141
N	-0.782911	-3.15775	-32.8301
B	-0.484934	-3.15775	-34.2551
N	0.688538	-2.91738	-30.6891
B	0.417511	-2.91738	-32.1141
N	1.44996	-2.23287	-32.8301
B	1.74793	-2.23287	-34.2551
N	2.3975	-1.20842	-30.6891
B	2.12647	-1.20842	-32.1141
N	3.44188	0	-28.5482
B	2.88387	0	-29.9732
N	3.70986	1.20842	-26.4072
B	3.44552	1.20842	-27.8322
N	2.51699	2.23287	-28.5482
B	1.95899	2.23287	-29.9732
N	2.0009	2.91738	-26.4072
B	1.73656	2.91738	-27.8322
N	0.284125	3.15775	-28.5482
B	-0.273881	3.15775	-29.9732
N	-0.415942	2.91738	-26.4072
B	-0.680279	2.91738	-27.8322
N	-1.94874	2.23287	-28.5482
B	-2.50675	2.23287	-29.9732
N	-2.1249	1.20842	-26.4072
B	-2.38924	1.20842	-27.8322
N	-2.87363	0	-28.5482
B	-3.43163	0	-29.9732
N	-2.1249	-1.20842	-26.4072
B	-2.38924	-1.20842	-27.8322
N	-1.94874	-2.23287	-28.5482
B	-2.50675	-2.23287	-29.9732
N	-0.415942	-2.91738	-26.4072
B	-0.680279	-2.91738	-27.8322
N	0.284125	-3.15775	-28.5482
B	-0.273881	-3.15775	-29.9732
N	2.0009	-2.91738	-26.4072
B	1.73656	-2.91738	-27.8322
N	2.51699	-2.23287	-28.5482
B	1.95899	-2.23287	-29.9732
N	3.70986	-1.20842	-26.4072
B	3.44552	-1.20842	-27.8322
N	3.63395	0	-24.2663
B	3.93834	0	-25.6913
N	2.58178	1.20842	-22.1253
B	3.13816	1.20842	-23.5503
N	2.70906	2.23287	-24.2663
B	3.01346	2.23287	-25.6913
N	0.872815	2.91738	-22.1253
B	1.4292	2.91738	-23.5503
N	0.476196	3.15775	-24.2663
B	0.780591	3.15775	-25.6913
N	-1.54402	2.91738	-22.1253
B	-0.987642	2.91738	-23.5503
N	-1.75667	2.23287	-24.2663
B	-1.45228	2.23287	-25.6913
N	-3.25298	1.20842	-22.1253
B	-2.6966	1.20842	-23.5503
N	-2.68155	0	-24.2663
B	-2.37716	0	-25.6913
N	-3.25298	-1.20842	-22.1253
B	-2.6966	-1.20842	-23.5503
N	-1.75667	-2.23287	-24.2663
B	-1.45228	-2.23287	-25.6913
N	-1.54402	-2.91738	-22.1253
B	-0.987642	-2.91738	-23.5503
N	0.476196	-3.15775	-24.2663
B	0.780591	-3.15775	-25.6913
N	0.872815	-2.91738	-22.1253
B	1.4292	-2.91738	-23.5503
N	2.70906	-2.23287	-24.2663
B	3.01346	-2.23287	-25.6913
N	2.58178	-1.20842	-22.1253
B	3.13816	-1.20842	-23.5503
N	2.35957	0	-19.9844
B	2.58898	0	-21.4094
N	2.48719	1.20842	-17.8435
B	2.15091	1.20842	-19.2685
N	1.43468	2.23287	-19.9844
B	1.66409	2.23287	-21.4094
N	0.778229	2.91738	-17.8435
B	0.441949	2.91738	-19.2685
N	-0.798182	3.15775	-19.9844
B	-0.568772	3.15775	-21.4094
N	-1.63861	2.91738	-17.8435
B	-1.97489	2.91738	-19.2685
N	-3.03105	2.23287	-19.9844
B	-2.80164	2.23287	-21.4094
N	-3.34757	1.20842	-17.8435
B	-3.68385	1.20842	-19.2685
N	-3.95593	0	-19.9844
B	-3.72652	0	-21.4094
N	-3.34757	-1.20842	-17.8435
B	-3.68385	-1.20842	-19.2685
N	-3.03105	-2.23287	-19.9844
B	-2.80164	-2.23287	-21.4094
N	-1.63861	-2.91738	-17.8435
B	-1.97489	-2.91738	-19.2685
N	-0.798182	-3.15775	-19.9844
B	-0.568772	-3.15775	-21.4094
N	0.778229	-2.91738	-17.8435
B	0.441949	-2.91738	-19.2685
N	1.43468	-2.23287	-19.9844
B	1.66409	-2.23287	-21.4094
N	2.48719	-1.20842	-17.8435
B	2.15091	-1.20842	-19.2685
N	3.5432	0	-15.7025
B	2.99115	0	-17.1275
N	3.71738	1.20842	-13.5616
B	3.52401	1.20842	-14.9866
N	2.61831	2.23287	-15.7025
B	2.06627	2.23287	-17.1275
N	2.00842	2.91738	-13.5616
B	1.81505	2.91738	-14.9866
N	0.385448	3.15775	-15.7025
B	-0.166597	3.15775	-17.1275
N	-0.408421	2.91738	-13.5616
B	-0.601786	2.91738	-14.9866
N	-1.84742	2.23287	-15.7025
B	-2.39946	2.23287	-17.1275
N	-2.11738	1.20842	-13.5616
B	-2.31075	1.20842	-14.9866
N	-2.7723	0	-15.7025
B	-3.32435	0	-17.1275
N	-2.11738	-1.20842	-13.5616
B	-2.31075	-1.20842	-14.9866
N	-1.84742	-2.23287	-15.7025
B	-2.39946	-2.23287	-17.1275
N	-0.408421	-2.91738	-13.5616
B	-0.601786	-2.91738	-14.9866
N	0.385448	-3.15775	-15.7025
B	-0.166597	-3.15775	-17.1275
N	2.00842	-2.91738	-13.5616
B	1.81505	-2.91738	-14.9866
N	2.61831	-2.23287	-15.7025
B	2.06627	-2.23287	-17.1275
N	3.71738	-1.20842	-13.5616
B	3.52401	-1.20842	-14.9866
N	3.53984	0	-11.4206
B	3.90637	0	-12.8456
N	2.48397	1.20842	-9.2797
B	3.02899	1.20842	-10.7047
N	2.61496	2.23287	-11.4206
B	2.98148	2.23287	-12.8456
N	0.775006	2.91738	-9.2797
B	1.32002	2.91738	-10.7047
N	0.382089	3.15775	-11.4206
B	0.748615	3.15775	-12.8456
N	-1.64183	2.91738	-9.2797
B	-1.09681	2.91738	-10.7047
N	-1.85078	2.23287	-11.4206
B	-1.48425	2.23287	-12.8456
N	-3.35079	1.20842	-9.2797
B	-2.80578	1.20842	-10.7047
N	-2.77566	0	-11.4206
B	-2.40914	0	-12.8456
N	-3.35079	-1.20842	-9.2797
B	-2.80578	-1.20842	-10.7047
N	-1.85078	-2.23287	-11.4206
B	-1.48425	-2.23287	-12.8456
N	-1.64183	-2.91738	-9.2797
B	-1.09681	-2.91738	-10.7047
N	0.382089	-3.15775	-11.4206
B	0.748615	-3.15775	-12.8456
N	0.775006	-2.91738	-9.2797
B	1.32002	-2.91738	-10.7047
N	2.61496	-2.23287	-11.4206
B	2.98148	-2.23287	-12.8456
N	2.48397	-1.20842	-9.2797
B	3.02899	-1.20842	-10.7047
N	2.35984	0	-7.13876
B	2.51621	0	-8.56376
N	2.58526	1.20842	-4.99782
B	2.19027	1.20842	-6.42282
N	1.43495	2.23287	-7.13876
B	1.59133	2.23287	-8.56376
N	0.876294	2.91738	-4.99782
B	0.481307	2.91738	-6.42282
N	-0.797915	3.15775	-7.13876
B	-0.641539	3.15775	-8.56376
N	-1.54054	2.91738	-4.99782
B	-1.93553	2.91738	-6.42282
N	-3.03078	2.23287	-7.13876
B	-2.87441	2.23287	-8.56376
N	-3.24951	1.20842	-4.99782
B	-3.64449	1.20842	-6.42282
N	-3.95567	0	-7.13876
B	-3.79929	0	-8.56376
N	-3.24951	-1.20842	-4.99782
B	-3.64449	-1.20842	-6.42282
N	-3.03078	-2.23287	-7.13876
B	-2.87441	-2.23287	-8.56376
N	-1.54054	-2.91738	-4.99782
B	-1.93553	-2.91738	-6.42282
N	-0.797915	-3.15775	-7.13876
B	-0.641539	-3.15775	-8.56376
N	0.876294	-2.91738	-4.99782
B	0.481307	-2.91738	-6.42282
N	1.43495	-2.23287	-7.13876
B	1.59133	-2.23287	-8.56376
N	2.58526	-1.20842	-4.99782
B	2.19027	-1.20842	-6.42282
N	3.63702	0	-2.85688
B	3.10168	0	-4.28188
N	3.70933	1.20842	-0.715941
B	3.5907	1.20842	-2.14094
N	2.71213	2.23287	-2.85688
B	2.1768	2.23287	-4.28188
N	2.00036	2.91738	-0.715941
B	1.88174	2.91738	-2.14094
N	0.479266	3.15775	-2.85688
B	-0.0560697	3.15775	-4.28188
N	-0.416474	2.91738	-0.715941
B	-0.535101	2.91738	-2.14094
N	-1.7536	2.23287	-2.85688
B	-2.28894	2.23287	-4.28188
N	-2.12544	1.20842	-0.715941
B	-2.24406	1.20842	-2.14094
N	-2.67848	0	-2.85688
B	-3.21382	0	-4.28188
N	-2.12544	-1.20842	-0.715941
B	-2.24406	-1.20842	-2.14094
N	-1.7536	-2.23287	-2.85688
B	-2.28894	-2.23287	-4.28188
N	-0.416474	-2.91738	-0.715941
B	-0.535101	-2.91738	-2.14094
N	0.479266	-3.15775	-2.85688
B	-0.0560697	-3.15775	-4.28188
N	2.00036	-2.91738	-0.715941
B	1.88174	-2.91738	-2.14094
N	2.71213	-2.23287	-2.85688
B	2.1768	-2.23287	-4.28188
N	3.70933	-1.20842	-0.715941
B	3.5907	-1.20842	-2.14094
N	3.43829	0	1.425
B	3.85982	0	0
N	2.3946	1.20842	3.56594
B	2.91764	1.20842	2.14094
N	2.51341	2.23287	1.425
B	2.93493	2.23287	0
N	0.685634	2.91738	3.56594
B	1.20868	2.91738	2.14094
N	0.280543	3.15775	1.425
B	0.702066	3.15775	0
N	-1.7312	2.91738	3.56594
B	-1.20816	2.91738	2.14094
N	-1.95232	2.23287	1.425
B	-1.5308	2.23287	0
N	-3.44017	1.20842	3.56594
B	-2.91712	1.20842	2.14094
N	-2.87721	0	1.425
B	-2.45568	0	0
N	-3.44017	-1.20842	3.56594
B	-2.91712	-1.20842	2.14094
N	-1.95232	-2.23287	1.425
B	-1.5308	-2.23287	0
N	-1.7312	-2.91738	3.56594
B	-1.20816	-2.91738	2.14094
N	0.280543	-3.15775	1.425
B	0.702066	-3.15775	0
N	0.685634	-2.91738	3.56594
B	1.20868	-2.91738	2.14094
N	2.51341	-2.23287	1.425
B	2.93493	-2.23287	0
N	2.3946	-1.20842	3.56594
B	2.91764	-1.20842	2.14094
N	2.37564	0	5.70688
B	2.45594	0	4.28188
N	2.68979	1.20842	7.84782
B	2.24378	1.20842	6.42282
N	1.45075	2.23287	5.70688
B	1.53105	2.23287	4.28188
N	0.980824	2.91738	7.84782
B	0.53482	2.91738	6.42282
N	-0.782115	3.15775	5.70688
B	-0.701816	3.15775	4.28188
N	-1.43601	2.91738	7.84782
B	-1.88202	2.91738	6.42282
N	-3.01498	2.23287	5.70688
B	-2.93468	2.23287	4.28188
N	-3.14498	1.20842	7.84782
B	-3.59098	1.20842	6.42282
N	-3.93987	0	5.70688
B	-3.85957	0	4.28188
N	-3.14498	-1.20842	7.84782
B	-3.59098	-1.20842	6.42282
N	-3.01498	-2.23287	5.70688
B	-2.93468	-2.23287	4.28188
N	-1.43601	-2.91738	7.84782
B	-1.88202	-2.91738	6.42282
N	-0.782115	-3.15775	5.70688
B	-0.701816	-3.15775	4.28188
N	0.980824	-2.91738	7.84782
B	0.53482	-2.91738	6.42282
N	1.45075	-2.23287	5.70688
B	1.53105	-2.23287	4.28188
N	2.68979	-1.20842	7.84782
B	2.24378	-1.20842	6.42282
N	3.72151	0	9.98876
B	3.2133	0	8.56376
N	3.68586	1.20842	12.1297
B	3.64428	1.20842	10.7047
N	2.79662	2.23287	9.98876
B	2.28842	2.23287	8.56376
N	1.97689	2.91738	12.1297
B	1.93531	2.91738	10.7047
N	0.563756	3.15775	9.98876
B	0.0555493	3.15775	8.56376
N	-0.439944	2.91738	12.1297
B	-0.481525	2.91738	10.7047
N	-1.66911	2.23287	9.98876
B	-2.17732	2.23287	8.56376
N	-2.14891	1.20842	12.1297
B	-2.19049	1.20842	10.7047
N	-2.594	0	9.98876
B	-3.1022	0	8.56376
N	-2.14891	-1.20842	12.1297
B	-2.19049	-1.20842	10.7047
N	-1.66911	-2.23287	9.98876
B	-2.17732	-2.23287	8.56376
N	-0.439944	-2.91738	12.1297
B	-0.481525	-2.91738	10.7047
N	0.563756	-3.15775	9.98876
B	0.0555493	-3.15775	8.56376
N	1.97689	-2.91738	12.1297
B	1.93531	-2.91738	10.7047
N	2.79662	-2.23287	9.98876
B	2.28842	-2.23287	8.56376
N	3.68586	-1.20842	12.1297
B	3.64428	-1.20842	10.7047
N	3.33129	0	14.2706
B	3.7996	0	12.8456
N	2.3154	1.20842	16.4116
B	2.80629	1.20842	14.9866
N	2.4064	2.23287	14.2706
B	2.87472	2.23287	12.8456
N	0.606439	2.91738	16.4116
B	1.09733	2.91738	14.9866
N	0.173537	3.15775	14.2706
B	0.64185	3.15775	12.8456
N	-1.8104	2.91738	16.4116
B	-1.31951	2.91738	14.9866
N	-2.05933	2.23287	14.2706
B	-1.59102	2.23287	12.8456
N	-3.51936	1.20842	16.4116
B	-3.02847	1.20842	14.9866
N	-2.98421	0	14.2706
B	-2.5159	0	12.8456
N	-3.51936	-1.20842	16.4116
B	-3.02847	-1.20842	14.9866
N	-2.05933	-2.23287	14.2706
B	-1.59102	-2.23287	12.8456
N	-1.8104	-2.91738	16.4116
B	-1.31951	-2.91738	14.9866
N	0.173537	-3.15775	14.2706
B	0.64185	-3.15775	12.8456
N	0.606439	-2.91738	16.4116
B	1.09733	-2.91738	14.9866
N	2.4064	-2.23287	14.2706
B	2.87472	-2.23287	12.8456
N	2.3154	-1.20842	16.4116
B	2.80629	-1.20842	14.9866
N	2.40666	0	18.5525
B	2.40932	0	17.1275
N	2.79875	1.20842	20.6935
B	2.31041	1.20842	19.2685
N	1.48178	2.23287	18.5525
B	1.48444	2.23287	17.1275
N	1.08979	2.91738	20.6935
B	0.601446	2.91738	19.2685
N	-0.75109	3.15775	18.5525
B	-0.748431	3.15775	17.1275
N	-1.32705	2.91738	20.6935
B	-1.81539	2.91738	19.2685
N	-2.98396	2.23287	18.5525
B	-2.9813	2.23287	17.1275
N	-3.03601	1.20842	20.6935
B	-3.52435	1.20842	19.2685
N	-3.90884	0	18.5525
B	-3.90618	0	17.1275
N	-3.03601	-1.20842	20.6935
B	-3.52435	-1.20842	19.2685
N	-2.98396	-2.23287	18.5525
B	-2.9813	-2.23287	17.1275
N	-1.32705	-2.91738	20.6935
B	-1.81539	-2.91738	19.2685
N	-0.75109	-3.15775	18.5525
B	-0.748431	-3.15775	17.1275
N	1.08979	-2.91738	20.6935
B	0.601446	-2.91738	19.2685
N	1.48178	-2.23287	18.5525
B	1.48444	-2.23287	17.1275
N	2.79875	-1.20842	20.6935
B	2.31041	-1.20842	19.2685
N	3.79502	0	22.8344
B	3.32384	0	21.4094
N	3.64743	1.20842	24.9753
B	3.6837	1.20842	23.5503
N	2.87014	2.23287	22.8344
B	2.39895	2.23287	21.4094
N	1.93846	2.91738	24.9753
B	1.97474	2.91738	23.5503
N	0.63727	3.15775	22.8344
B	0.166087	3.15775	21.4094
N	-0.478374	2.91738	24.9753
B	-0.442098	2.91738	23.5503
N	-1.5956	2.23287	22.8344
B	-2.06678	2.23287	21.4094
N	-2.18734	1.20842	24.9753
B	-2.15106	1.20842	23.5503
N	-2.52048	0	22.8344
B	-2.99166	0	21.4094
N	-2.18734	-1.20842	24.9753
B	-2.15106	-1.20842	23.5503
N	-1.5956	-2.23287	22.8344
B	-2.06678	-2.23287	21.4094
N	-0.478374	-2.91738	24.9753
B	-0.442098	-2.91738	23.5503
N	0.63727	-3.15775	22.8344
B	0.166087	-3.15775	21.4094
N	1.93846	-2.91738	24.9753
B	1.97474	-2.91738	23.5503
N	2.87014	-2.23287	22.8344
B	2.39895	-2.23287	21.4094
N	3.64743	-1.20842	24.9753
B	3.6837	-1.20842	23.5503
N	3.2209	0	27.1163
B	3.72689	0	25.6913
N	2.24793	1.20842	29.2572
B	2.69711	1.20842	27.8322
N	2.29602	2.23287	27.1163
B	2.80201	2.23287	25.6913
N	0.538963	2.91738	29.2572
B	0.988143	2.91738	27.8322
N	0.0631518	3.15775	27.1163
B	0.569139	3.15775	25.6913
N	-1.87787	2.91738	29.2572
B	-1.42869	2.91738	27.8322
N	-2.16972	2.23287	27.1163
B	-1.66373	2.23287	25.6913
N	-3.58684	1.20842	29.2572
B	-3.13766	1.20842	27.8322
N	-3.0946	0	27.1163
B	-2.58861	0	25.6913
N	-3.58684	-1.20842	29.2572
B	-3.13766	-1.20842	27.8322
N	-2.16972	-2.23287	27.1163
B	-1.66373	-2.23287	25.6913
N	-1.87787	-2.91738	29.2572
B	-1.42869	-2.91738	27.8322
N	0.0631518	-3.15775	27.1163
B	0.569139	-3.15775	25.6913
N	0.538963	-2.91738	29.2572
B	0.988143	-2.91738	27.8322
N	2.29602	-2.23287	27.1163
B	2.80201	-2.23287	25.6913
N	2.24793	-1.20842	29.2572
B	2.69711	-1.20842	27.8322
N	2.45231	0	31.3982
B	2.37727	0	29.9732
N	2.91002	1.20842	33.5391
B	2.38885	1.20842	32.1141
N	1.52742	2.23287	31.3982
B	1.45239	2.23287	29.9732
N	1.20106	2.91738	33.5391
B	0.679887	2.91738	32.1141
N	-0.705443	3.15775	31.3982
B	-0.780477	3.15775	29.9732
N	-1.21578	2.91738	33.5391
B	-1.73695	2.91738	32.1141
N	-2.93831	2.23287	31.3982
B	-3.01334	2.23287	29.9732
N	-2.92474	1.20842	33.5391
B	-3.44591	1.20842	32.1141
N	-3.86319	0	31.3982
B	-3.93823	0	29.9732
N	-2.92474	-1.20842	33.5391
B	-3.44591	-1.20842	32.1141
N	-2.93831	-2.23287	31.3982
B	-3.01334	-2.23287	29.9732
N	-1.21578	-2.91738	33.5391
B	-1.73695	-2.91738	32.1141
N	-0.705443	-3.15775	31.3982
B	-0.780477	-3.15775	29.9732
N	1.20106	-2.91738	33.5391
B	0.679887	-2.91738	32.1141
N	1.52742	-2.23287	31.3982
B	1.45239	-2.23287	29.9732
N	2.91002	-1.20842	33.5391
B	2.38885	-1.20842	32.1141
N	3.85613	0	35.6801
B	3.43114	0	34.2551
N	3.59478	1.20842	37.821
B	3.70821	1.20842	36.396
N	2.93125	2.23287	35.6801
B	2.50626	2.23287	34.2551
N	1.88582	2.91738	37.821
B	1.99925	2.91738	36.396
N	0.698379	3.15775	35.6801
B	0.273391	3.15775	34.2551
N	-0.531015	2.91738	37.821
B	-0.417589	2.91738	36.396
N	-1.53449	2.23287	35.6801
B	-1.95948	2.23287	34.2551
N	-2.23998	1.20842	37.821
B	-2.12655	1.20842	36.396
N	-2.45937	0	35.6801
B	-2.88436	0	34.2551
N	-2.23998	-1.20842	37.821
B	-2.12655	-1.20842	36.396
N	-1.53449	-2.23287	35.6801
B	-1.95948	-2.23287	34.2551
N	-0.531015	-2.91738	37.821
B	-0.417589	-2.91738	36.396
N	0.698379	-3.15775	35.6801
B	0.273391	-3.15775	34.2551
N	1.88582	-2.91738	37.821
B	1.99925	-2.91738	36.396
N	2.93125	-2.23287	35.6801
B	2.50626	-2.23287	34.2551
N	3.59478	-1.20842	37.821
B	3.70821	-1.20842	36.396
N	3.10929	0	39.9619
B	3.6431	0	38.5369
N	2.19348	1.20842	42.1029
B	2.59221	1.20842	40.6779
N	2.1844	2.23287	39.9619
B	2.71822	2.23287	38.5369
N	0.484519	2.91738	42.1029
B	0.883244	2.91738	40.6779
N	-0.0484621	3.15775	39.9619
B	0.485349	3.15775	38.5369
N	-1.93232	2.91738	42.1029
B	-1.53359	2.91738	40.6779
N	-2.28133	2.23287	39.9619
B	-1.74752	2.23287	38.5369
N	-3.64128	1.20842	42.1029
B	-3.24256	1.20842	40.6779
N	-3.20621	0	39.9619
B	-2.6724	0	38.5369
N	-3.64128	-1.20842	42.1029
B	-3.24256	-1.20842	40.6779
N	-2.28133	-2.23287	39.9619
B	-1.74752	-2.23287	38.5369
N	-1.93232	-2.91738	42.1029
B	-1.53359	-2.91738	40.6779
N	-0.0484621	-3.15775	39.9619
B	0.485349	-3.15775	38.5369
N	0.484519	-2.91738	42.1029
B	0.883244	-2.91738	40.6779
N	2.1844	-2.23287	39.9619
B	2.71822	-2.23287	38.5369
N	2.19348	-1.20842	42.1029
B	2.59221	-1.20842	40.6779
N	2.51169	0	44.2438
B	2.36042	0	42.8188
N	3.02143	1.20842	46.3848
B	2.47758	1.20842	44.9598
N	1.5868	2.23287	44.2438
B	1.43554	2.23287	42.8188
N	1.31247	2.91738	46.3848
B	0.768618	2.91738	44.9598
N	-0.646064	3.15775	44.2438
B	-0.797329	3.15775	42.8188
N	-1.10437	2.91738	46.3848
B	-1.64822	2.91738	44.9598
N	-2.87893	2.23287	44.2438
B	-3.0302	2.23287	42.8188
N	-2.81333	1.20842	46.3848
B	-3.35718	1.20842	44.9598
N	-3.80381	0	44.2438
B	-3.95508	0	42.8188
N	-2.81333	-1.20842	46.3848
B	-3.35718	-1.20842	44.9598
N	-2.87893	-2.23287	44.2438
B	-3.0302	-2.23287	42.8188
N	-1.10437	-2.91738	46.3848
B	-1.64822	-2.91738	44.9598
N	-0.646064	-3.15775	44.2438
B	-0.797329	-3.15775	42.8188
N	1.31247	-2.91738	46.3848
B	0.768618	-2.91738	44.9598
N	1.5868	-2.23287	44.2438
B	1.43554	-2.23287	42.8188
N	3.02143	-1.20842	46.3848
B	2.47758	-1.20842	44.9598
N	3.90364	0	48.5257
B	3.53312	0	47.1007
N	3.52896	1.20842	50.6666
B	3.71732	1.20842	49.2416
N	2.97876	2.23287	48.5257
B	2.60824	2.23287	47.1007
N	1.81999	2.91738	50.6666
B	2.00836	2.91738	49.2416
N	0.745893	3.15775	48.5257
B	0.375374	3.15775	47.1007
N	-0.596843	2.91738	50.6666
B	-0.408476	2.91738	49.2416
N	-1.48697	2.23287	48.5257
B	-1.85749	2.23287	47.1007
N	-2.30581	1.20842	50.6666
B	-2.11744	1.20842	49.2416
N	-2.41186	0	48.5257
B	-2.78238	0	47.1007
N	-2.30581	-1.20842	50.6666
B	-2.11744	-1.20842	49.2416
N	-1.48697	-2.23287	48.5257
B	-1.85749	-2.23287	47.1007
N	-0.596843	-2.91738	50.6666
B	-0.408476	-2.91738	49.2416
N	0.745893	-3.15775	48.5257
B	0.375374	-3.15775	47.1007
N	1.81999	-2.91738	50.6666
B	2.00836	-2.91738	49.2416
N	2.97876	-2.23287	48.5257
B	2.60824	-2.23287	47.1007
N	3.52896	-1.20842	50.6666
B	3.71732	-1.20842	49.2416
N	2.99862	0	52.8076
B	3.54986	0	51.3826
N	2.15313	1.20842	54.9485
B	2.49364	1.20842	53.5235
N	2.07373	2.23287	52.8076
B	2.62498	2.23287	51.3826
N	0.444167	2.91738	54.9485
B	0.784676	2.91738	53.5235
N	-0.159133	3.15775	52.8076
B	0.39211	3.15775	51.3826
N	-1.97267	2.91738	54.9485
B	-1.63216	2.91738	53.5235
N	-2.392	2.23287	52.8076
B	-1.84076	2.23287	51.3826
N	-3.68163	1.20842	54.9485
B	-3.34112	1.20842	53.5235
N	-3.31688	0	52.8076
B	-2.76564	0	51.3826
N	-3.68163	-1.20842	54.9485
B	-3.34112	-1.20842	53.5235
N	-2.392	-2.23287	52.8076
B	-1.84076	-2.23287	51.3826
N	-1.97267	-2.91738	54.9485
B	-1.63216	-2.91738	53.5235
N	-0.159133	-3.15775	52.8076
B	0.39211	-3.15775	51.3826
N	0.444167	-2.91738	54.9485
B	0.784676	-2.91738	53.5235
N	2.07373	-2.23287	52.8076
B	2.62498	-2.23287	51.3826
N	2.15313	-1.20842	54.9485
B	2.49364	-1.20842	53.5235
N	2.58364	0	57.0895
B	2.35909	0	55.6645
N	3.13082	1.20842	59.2304
B	2.57487	1.20842	57.8054
N	1.65876	2.23287	57.0895
B	1.43421	2.23287	55.6645
N	1.42186	2.91738	59.2304
B	0.86591	2.91738	57.8054
N	-0.574108	3.15775	57.0895
B	-0.79866	3.15775	55.6645
N	-0.994979	2.91738	59.2304
B	-1.55093	2.91738	57.8054
N	-2.80697	2.23287	57.0895
B	-3.03153	2.23287	55.6645
N	-2.70394	1.20842	59.2304
B	-3.25989	1.20842	57.8054
N	-3.73186	0	57.0895
B	-3.95641	0	55.6645
N	-2.70394	-1.20842	59.2304
B	-3.25989	-1.20842	57.8054
N	-2.80697	-2.23287	57.0895
B	-3.03153	-2.23287	55.6645
N	-0.994979	-2.91738	59.2304
B	-1.55093	-2.91738	57.8054
N	-0.574108	-3.15775	57.0895
B	-0.79866	-3.15775	55.6645
N	1.42186	-2.91738	59.2304
B	0.86591	-2.91738	57.8054
N	1.65876	-2.23287	57.0895
B	1.43421	-2.23287	55.6645
N	3.13082	-1.20842	59.2304
B	2.57487	-1.20842	57.8054
N	3.93664	0	61.3713
B	3.6278	0	59.9463
N	3.45122	1.20842	63.5123
B	3.71087	1.20842	62.0873
N	3.01175	2.23287	61.3713
B	2.70292	2.23287	59.9463
N	1.74226	2.91738	63.5123
B	2.0019	2.91738	62.0873
N	0.778886	3.15775	61.3713
B	0.470048	3.15775	59.9463
N	-0.674577	2.91738	63.5123
B	-0.414935	2.91738	62.0873
N	-1.45398	2.23287	61.3713
B	-1.76282	2.23287	59.9463
N	-2.38354	1.20842	63.5123
B	-2.1239	1.20842	62.0873
N	-2.37886	0	61.3713
B	-2.6877	0	59.9463
N	-2.38354	-1.20842	63.5123
B	-2.1239	-1.20842	62.0873
N	-1.45398	-2.23287	61.3713
B	-1.76282	-2.23287	59.9463
N	-0.674577	-2.91738	63.5123
B	-0.414935	-2.91738	62.0873
N	0.778886	-3.15775	61.3713
B	0.470048	-3.15775	59.9463
N	1.74226	-2.91738	63.5123
B	2.0019	-2.91738	62.0873
N	3.01175	-2.23287	61.3713
B	2.70292	-2.23287	59.9463
N	3.45122	-1.20842	63.5123
B	3.71087	-1.20842	62.0873
N	2.89104	0	65.6532
B	3.44899	0	64.2282
N	2.12765	1.20842	67.7942
B	2.40332	1.20842	66.3692
N	1.96616	2.23287	65.6532
B	2.52411	2.23287	64.2282
N	0.418693	2.91738	67.7942
B	0.694356	2.91738	66.3692
N	-0.266706	3.15775	65.6532
B	0.291239	3.15775	64.2282
N	-1.99815	2.91738	67.7942
B	-1.72248	2.91738	66.3692
N	-2.49957	2.23287	65.6532
B	-1.94163	2.23287	64.2282
N	-3.70711	1.20842	67.7942
B	-3.43144	1.20842	66.3692
N	-3.42446	0	65.6532
B	-2.86651	0	64.2282
N	-3.70711	-1.20842	67.7942
B	-3.43144	-1.20842	66.3692
N	-2.49957	-2.23287	65.6532
B	-1.94163	-2.23287	64.2282
N	-1.99815	-2.91738	67.7942
B	-1.72248	-2.91738	66.3692
N	-0.266706	-3.15775	65.6532
B	0.291239	-3.15775	64.2282
N	0.418693	-2.91738	67.7942
B	0.694356	-2.91738	66.3692
N	1.96616	-2.23287	65.6532
B	2.52411	-2.23287	64.2282
N	2.12765	-1.20842	67.7942
B	2.40332	-1.20842	66.3692
