17
diamond
 C    0.893427    2.680282    0.893427
 C    2.680282    2.680282    2.680282
 C    0.893427    0.893427    2.680282
 C    2.680282    0.893427    0.893427
 C    1.786855    1.786855    1.786855
 C    1.786855    0.000000    0.000000
 C    1.786855    0.000000    3.573710
 C    1.786855    3.573710    0.000000
 C    1.786855    3.573710    3.573710
 C    0.000000    1.786855    0.000000
 C    0.000000    1.786855    3.573710
 C    3.573710    1.786855    0.000000
 C    3.573710    1.786855    3.573710
 C    0.000000    0.000000    1.786855
 C    0.000000    3.573710    1.786855
 C    3.573710    0.000000    1.786855
 C    3.573710    3.573710    1.786855
